Circuit: * C:\Users\zju\Desktop\sim_folder\Final_Test\1_Necessity\Test_Nonlinear\Test_Nonlinear.asc

ltra: using linear interpolation because trytocompact option specified
Direct Newton iteration for .op point succeeded.

Date: Mon Dec 19 20:35:02 2022
Total elapsed time: 0.170 seconds.

tnom = 27
temp = 27
method = Gear
totiter = 2043
traniter = 2035
tranpoints = 705
accept = 624
rejected = 81
matrix size = 26
fillins = 0
solver = Alternate
Matrix Compiler1: 1.80 KB object code size  0.5/0.4/[0.3]
Matrix Compiler2: 2.28 KB object code size  0.3/0.4/[0.3]

