Circuit: * C:\Users\zju\Desktop\sim_folder\Final_Test\3_Jitter_Effect\Test_Sample_Rate\Test_Sample_Rate.asc

ltra: using linear interpolation because trytocompact option specified
Direct Newton iteration for .op point succeeded.
.step jit=-0.15
.step jit=-0.14
.step jit=-0.13
.step jit=-0.12
.step jit=-0.11
.step jit=-0.1
.step jit=-0.09
.step jit=-0.08
.step jit=-0.07
.step jit=-0.06
.step jit=-0.05
.step jit=-0.04
.step jit=-0.03
.step jit=-0.02
.step jit=-0.01
.step jit=0
.step jit=0.01
.step jit=0.02
.step jit=0.03
.step jit=0.04
.step jit=0.05
.step jit=0.06
.step jit=0.07
.step jit=0.08
.step jit=0.09
.step jit=0.1
.step jit=0.11
.step jit=0.12
.step jit=0.13
.step jit=0.14
.step jit=0.15

Date: Fri Dec 16 21:28:26 2022
Total elapsed time: 4.377 seconds.

tnom = 27
temp = 27
method = Gear
totiter = 3367
traniter = 3359
tranpoints = 1171
accept = 1126
rejected = 45
matrix size = 26
fillins = 2
Matrix Compiler1: 1.90 KB object code size  0.5/0.4/[0.3]
Matrix Compiler2: 2.31 KB object code size  0.4/0.5/[0.3]

